Cases/3Barras.txt
( TITULO DO CASO
TITU
**** Sistema de  2 barras ****          2Barras
(DADOS ESPEC�FICOS P/ ESTIMA��O DE ESTADOS:
(============================================================
(   0    |    1    |    2    |    3    |    4    |    5    |
(23456789012345678901234567890123456789012345678901234567890
( NB)( NL)(NIP)(NIQ)(NFP)(NFQ)(NMV)(PIP)(PIQ)(PFP)(PFQ)(PMV)(UTR)(PMU)     descri��o: 0-n�o tem medida nem pseudo; 1-tem medida; 2-tem pseudo; 3-tem medida e pseudo
    3    2    1    1    4    4    2    0    0    0    0    0    2    2                               
DBAR
( DADOS DE BARRAS CA PARA FLUXO DE CARGA E ESTIMA��O DE ESTADOS (A PARTIR DA COLUNA 80)
(===============================================================================================================================================
(   0    |    1    |    2    |    3    |    4    |    5    |    6    |    7    |    8    |    9    |   10    |   11    |   12    |   13    |                                                       
(234567890123456789012345678901234567890123456789012345678901234567890123456789012345678901234567890123456789012345678901234567890112345678901
(No) O TB(   nome   )G( V)( A)( Pg)( Qg)( Qn)( Qm)( Bc)( Pl)( Ql)( Sh)(A(Vc)|||TP(  P  )(desP)TQ(  Q  )(desQ)TV(  V  )(desV)(UTR)( T )(PMU)  
   1   2  Bus_1  HV1  1000  0                                                 ( 0              0              1   10600.0071    1    0    1  
   2   0  Bus_2  HV1  1000                                                    ( 1 0.18300.0012 1 0.33800.0023 0                 2    0    2
   3   0  Bus_3  HV1  1000                                                    ( 0              0              1   09450.0063    2    0    2  
9999
DLIN
( DADOS DE LINHAS CA PARA FLUXO DE CARGA E ESTIMA��O DE ESTADOS (A PARTIR DA COLUNA 80)
(=============================================================================================================================================================================================
(   0    |    1    |    2    |    3    |    4    |    5    |    6    |    7    |    8    |    9    |   10    |   11    |   12    |   13    |   14    |   15    |   16    |   17    |   18    |
(234567890123456789012345678901234567890123456789012345678901234567890123456789012345678901234567890123456789012345678901234567890123456789012345678901234567890123456789012345678901234567890
(De) O  (Pa)NcEP ( R% )( X% )(MVAR)(Tap)(Tmn)(Tmx)(Phs)( Bc)(Cn)(Ce)     (k=>m)TP(  P  )(desP)TQ(  Q  )(desQ)(m=>k)TP(  P  )(desP)TQ(  Q  )(desQ)(k=>m)TC( PMU )(desC)(m=>k)TC( PMU )(desC)
   1       2 1   1.93875.91795.28                                             ( 1 0.81900.0054 1-0.01100.0001       1-0.80700.0054 1-0.01200.0001
   2       3 1   4.698719.7974.38                                             ( 1 0.99000.0066 1 0.34900.0023       1-0.94200.0063 1-0.19000.0013
9999
FIM
